Circuit: * C:\Hobbies\Ham Radio\Kits & Projects\Dueling 612s\Phoenix 612\Simulations\Transistor Biasing\2SC5706 Ouput Characteristic Curve.asc

.step vb=0.5
.step vb=0.52
.step vb=0.54
.step vb=0.56
.step vb=0.58
.step vb=0.6
.step vb=0.62
.step vb=0.64
.step vb=0.66
.step vb=0.68
.step vb=0.7
.step vb=0.72
.step vb=0.74
.step vb=0.76
.step vb=0.78
.step vb=0.8
.step vb=0.82
.step vb=0.84
.step vb=0.86
.step vb=0.88
.step vb=0.9
.step vb=0.92
.step vb=0.94
.step vb=0.96
.step vb=0.98
.step vb=1
.step vb=1.02
.step vb=1.04
.step vb=1.06
.step vb=1.08
.step vb=1.1
.step vb=1.12
.step vb=1.14
.step vb=1.16
.step vb=1.18
.step vb=1.2
.step vb=1.22
.step vb=1.24
.step vb=1.26
.step vb=1.28
.step vb=1.3
.step vb=1.32
.step vb=1.34
.step vb=1.36
.step vb=1.38
.step vb=1.4
.step vb=1.42
.step vb=1.44
.step vb=1.46
.step vb=1.48
.step vb=1.5
.step vb=1.52
.step vb=1.54
.step vb=1.56
.step vb=1.58
.step vb=1.6
.step vb=1.62
.step vb=1.64
.step vb=1.66
.step vb=1.68
.step vb=1.7
.step vb=1.72
.step vb=1.74
.step vb=1.76
.step vb=1.78
.step vb=1.8
.step vb=1.82
.step vb=1.84
.step vb=1.86
.step vb=1.88
.step vb=1.9
.step vb=1.92
.step vb=1.94
.step vb=1.96
.step vb=1.98
.step vb=2
.step vb=2.02
.step vb=2.04
.step vb=2.06
.step vb=2.08
.step vb=2.1
.step vb=2.12
.step vb=2.14
.step vb=2.16
.step vb=2.18
.step vb=2.2
.step vb=2.22
.step vb=2.24
.step vb=2.26
.step vb=2.28
.step vb=2.3
.step vb=2.32
.step vb=2.34
.step vb=2.36
.step vb=2.38
.step vb=2.4
.step vb=2.42
.step vb=2.44
.step vb=2.46
.step vb=2.48
.step vb=2.5
.step vb=2.52
.step vb=2.54
.step vb=2.56
.step vb=2.58
.step vb=2.6
.step vb=2.62
.step vb=2.64
.step vb=2.66
.step vb=2.68
.step vb=2.7
.step vb=2.72
.step vb=2.74
.step vb=2.76
.step vb=2.78
.step vb=2.8
.step vb=2.82
.step vb=2.84
.step vb=2.86
.step vb=2.88
.step vb=2.9
.step vb=2.92
.step vb=2.94
.step vb=2.96
.step vb=2.98
.step vb=3
.step vb=3.02
.step vb=3.04
.step vb=3.06
.step vb=3.08
.step vb=3.1
.step vb=3.12
.step vb=3.14
.step vb=3.16
.step vb=3.18
.step vb=3.2
.step vb=3.22
.step vb=3.24
.step vb=3.26
.step vb=3.28
.step vb=3.3
.step vb=3.32
.step vb=3.34
.step vb=3.36
.step vb=3.38
.step vb=3.4
.step vb=3.42
.step vb=3.44
.step vb=3.46
.step vb=3.48
.step vb=3.5
.step vb=3.52
.step vb=3.54
.step vb=3.56
.step vb=3.58
.step vb=3.6
.step vb=3.62
.step vb=3.64
.step vb=3.66
.step vb=3.68
.step vb=3.7
.step vb=3.72
.step vb=3.74
.step vb=3.76
.step vb=3.78
.step vb=3.8
.step vb=3.82
.step vb=3.84
.step vb=3.86
.step vb=3.88
.step vb=3.9
.step vb=3.92
.step vb=3.94
.step vb=3.96
.step vb=3.98
.step vb=4
.step vb=4.02
.step vb=4.04
.step vb=4.06
.step vb=4.08
.step vb=4.1
.step vb=4.12
.step vb=4.14
.step vb=4.16
.step vb=4.18
.step vb=4.2
.step vb=4.22
.step vb=4.24
.step vb=4.26
.step vb=4.28
.step vb=4.3
.step vb=4.32
.step vb=4.34
.step vb=4.36
.step vb=4.38
.step vb=4.4
.step vb=4.42
.step vb=4.44
.step vb=4.46
.step vb=4.48
.step vb=4.5
.step vb=4.52
.step vb=4.54
.step vb=4.56
.step vb=4.58
.step vb=4.6
.step vb=4.62
.step vb=4.64
.step vb=4.66
.step vb=4.68
.step vb=4.7
.step vb=4.72
.step vb=4.74
.step vb=4.76
.step vb=4.78
.step vb=4.8
.step vb=4.82
.step vb=4.84
.step vb=4.86
.step vb=4.88
.step vb=4.9
.step vb=4.92
.step vb=4.94
.step vb=4.96
.step vb=4.98
.step vb=5
.step vb=5.02
.step vb=5.04
.step vb=5.06
.step vb=5.08
.step vb=5.1
.step vb=5.12
.step vb=5.14
.step vb=5.16
.step vb=5.18
.step vb=5.2
.step vb=5.22
.step vb=5.24
.step vb=5.26
.step vb=5.28
.step vb=5.3
.step vb=5.32
.step vb=5.34
.step vb=5.36
.step vb=5.38
.step vb=5.4
.step vb=5.42
.step vb=5.44
.step vb=5.46
.step vb=5.48
.step vb=5.5
.step vb=5.52
.step vb=5.54
.step vb=5.56
.step vb=5.58
.step vb=5.6
.step vb=5.62
.step vb=5.64
.step vb=5.66
.step vb=5.68
.step vb=5.7
.step vb=5.72
.step vb=5.74
.step vb=5.76
.step vb=5.78
.step vb=5.8
.step vb=5.82
.step vb=5.84
.step vb=5.86
.step vb=5.88
.step vb=5.9
.step vb=5.92
.step vb=5.94
.step vb=5.96
.step vb=5.98
.step vb=6
.step vb=6.02
.step vb=6.04
.step vb=6.06
.step vb=6.08
.step vb=6.1
.step vb=6.12
.step vb=6.14
.step vb=6.16
.step vb=6.18
.step vb=6.2
.step vb=6.22
.step vb=6.24
.step vb=6.26
.step vb=6.28
.step vb=6.3
.step vb=6.32
.step vb=6.34
.step vb=6.36
.step vb=6.38
.step vb=6.4
.step vb=6.42
.step vb=6.44
.step vb=6.46
.step vb=6.48
.step vb=6.5
.step vb=6.52
.step vb=6.54
.step vb=6.56
.step vb=6.58
.step vb=6.6
.step vb=6.62
.step vb=6.64
.step vb=6.66
.step vb=6.68
.step vb=6.7
.step vb=6.72
.step vb=6.74
.step vb=6.76
.step vb=6.78
.step vb=6.8
.step vb=6.82
.step vb=6.84
.step vb=6.86
.step vb=6.88
.step vb=6.9
.step vb=6.92
.step vb=6.94
.step vb=6.96
.step vb=6.98
.step vb=7
.step vb=7.02
.step vb=7.04
.step vb=7.06
.step vb=7.08
.step vb=7.1
.step vb=7.12
.step vb=7.14
.step vb=7.16
.step vb=7.18
.step vb=7.2
.step vb=7.22
.step vb=7.24
.step vb=7.26
.step vb=7.28
.step vb=7.3
.step vb=7.32
.step vb=7.34
.step vb=7.36
.step vb=7.38
.step vb=7.4
.step vb=7.42
.step vb=7.44
.step vb=7.46
.step vb=7.48
.step vb=7.5
.step vb=7.52
.step vb=7.54
.step vb=7.56
.step vb=7.58
.step vb=7.6
.step vb=7.62
.step vb=7.64
.step vb=7.66
.step vb=7.68
.step vb=7.7
.step vb=7.72
.step vb=7.74
.step vb=7.76
.step vb=7.78
.step vb=7.8
.step vb=7.82
.step vb=7.84
.step vb=7.86
.step vb=7.88
.step vb=7.9
