Questionable use of curly braces in ".model sir870adp vdmos(rg=3 vto=2.9 rd=3.2m rs=1.5m rb={m} kp=100 mtriode=1.85 cgdmax=1.4n cgdmin=70p cgs=2.9n cjo=3.6n m=.4 a=.7 vj=.7 lambda=20m is=3p ksubthres=.08 mfg=siliconix vds=100 ron=5.5m qg=53.5n)"
    Error: undefined symbol in: "[m]"
Circuit: * C:\Users\drajnauth\Desktop\Ham Radio\Kits & Projects\Dueling 612s\Simulations\Raised Cosine BFO Testing 2.asc

WARNING: Node N005 is floating.

.OP point found by inspection.

Date: Sat Mar 16 02:09:52 2019
Total elapsed time: 29.595 seconds.

tnom = 27
temp = 27
method = modified trap
totiter = 6864495
traniter = 6864495
tranpoints = 1971152
accept = 1339075
rejected = 632077
matrix size = 13
fillins = 2
solver = Alternate
Matrix Compiler1: 942 bytes object code size  0.4/0.3/[0.2]
Matrix Compiler2: 1.10 KB object code size  0.3/0.4/[0.3]


