Circuit: * D:\OneDrive\HAM Radio\Kits & Projects\Dueling 612s\Simulations\Good\40m QRPLabs LPF.asc


Date: Sun Dec 05 13:20:51 2021
Total elapsed time: 0.100 seconds.

tnom = 27
temp = 27
method = trap
totiter = 0
traniter = 0
tranpoints = 0
accept = 0
rejected = 0
matrix size = 6
fillins = 1
solver = Normal

