Circuit: * D:\OneDrive\HAM Radio\Kits & Projects\Dueling 612s\Simulations\Good\80m QRPLabs BPF.asc

Number of points per decade reduced from 100000 to 52449.

Date: Sun Dec 05 13:15:49 2021
Total elapsed time: 0.414 seconds.

tnom = 27
temp = 27
method = trap
totiter = 0
traniter = 0
tranpoints = 0
accept = 0
rejected = 0
matrix size = 10
fillins = 1
solver = Normal

