Questionable use of curly braces in ".model sir870adp vdmos(rg=3 vto=2.9 rd=3.2m rs=1.5m rb={m} kp=100 mtriode=1.85 cgdmax=1.4n cgdmin=70p cgs=2.9n cjo=3.6n m=.4 a=.7 vj=.7 lambda=20m is=3p ksubthres=.08 mfg=siliconix vds=100 ron=5.5m qg=53.5n)"
    Error: undefined symbol in: "[m]"
Circuit: * D:\OneDrive\HAM Radio\Kits & Projects\Dueling 612s\Simulations\Good\Power Amp (Orig) Preamp.asc

Direct Newton iteration for .op point succeeded.
Heightened Def Con from 1.95312e-012 to 7.00195e-009

Date: Sat Dec 04 11:32:57 2021
Total elapsed time: 2.826 seconds.

tnom = 27
temp = 27
method = modified trap
totiter = 282904
traniter = 282898
tranpoints = 76309
accept = 53256
rejected = 23054
matrix size = 55
fillins = 59
solver = Normal
Thread vector: 4.7/3.9[2] 3.9/3.4[2] 1.0/3.3[1] 0.7/1.5[1]  2592/500
Matrix Compiler1: 6.81 KB object code size  2.4/2.1/[0.7]
Matrix Compiler2: 5.64 KB object code size  1.1/1.8/[1.1]

